v {xschem version=3.4.6 file_version=1.2}
G {}
K {}
V {}
S {}
E {}
N 1970 -1450 2030 -1450 {
lab=VOUT}
N 2030 -1390 2030 -1370 {
lab=GND}
N 1740 -1390 1740 -1370 {
lab=GND}
N 1740 -1450 1910 -1450 {
lab=VIN}
N 2000 -1410 2000 -1390 {
lab=GND}
N 2030 -1390 2060 -1390 {
lab=GND}
N 2060 -1410 2060 -1390 {
lab=GND}
N 2030 -1410 2030 -1390 {
lab=GND}
N 2000 -1390 2030 -1390 {
lab=GND}
C {devices/res.sym} 1940 -1450 1 0 {name=R1
value=1k
footprint=1206
device=resistor
m=1}
C {devices/vsource.sym} 1740 -1420 0 0 {name=V1 value="PULSE (0 1 0 1p 1p 10n 20n)" savecurrent=false}
C {devices/gnd.sym} 1740 -1370 0 0 {name=l4 lab=GND}
C {devices/gnd.sym} 2030 -1370 0 0 {name=l5 lab=GND}
C {devices/lab_pin.sym} 1880 -1450 1 0 {name=p3 sig_type=std_logic lab=VIN
}
C {devices/lab_pin.sym} 2000 -1450 1 0 {name=p4 sig_type=std_logic lab=VOUT
}
C {devices/code_shown.sym} 2080 -1410 0 0 {name=s1 only_toplevel=false 
value="
.tran 100p 50n
.save all
.ic v(vout) = 0
.control
run
meas tran teval WHEN v(vout) = 0.63
let res_val = 1000
let cap_val = teval/res_val
print cap_val
.endc
"}
C {devices/code_shown.sym} 1720 -1290 0 0 {name=MODEL1 only_toplevel=true
format="tcleval( @value )"
value="

.param corner=0

.if (corner==0)
.lib cornerMOSlv.lib mos_tt
.lib cornerRES.lib res_typ
.lib cornerCAP.lib cap_typ
.lib cornerMOShv.lib mos_tt
.endif
"}
C {sg13g2_pr/npn13G2.sym} 2030 -1430 1 0 {name=Q1
model=npn13G2
spiceprefix=X
Nx=1
}
C {devices/code_shown.sym} 1700 -1600 0 0 {name=MODEL only_toplevel=true
format="tcleval( @value )"
value="
.lib $::SG13G2_MODELS/cornerHBT.lib hbt_typ
"}
